14449
  -OEChem-01261718213D

 83 88  0     1  0  0  0  0  0999 V2000
    3.1983    3.0619   -1.1060 O   0  0  0  0  0  0  0  0  0  0  0  0
   -3.9339   -1.1654   -0.0533 O   0  0  0  0  0  0  0  0  0  0  0  0
   -0.5637   -1.6873   -3.0739 O   0  0  0  0  0  0  0  0  0  0  0  0
    7.8904   -1.2548    1.3775 O   0  0  0  0  0  0  0  0  0  0  0  0
   -4.6300    0.2735    1.6945 O   0  0  0  0  0  0  0  0  0  0  0  0
    7.6702   -3.4658    0.7784 O   0  0  0  0  0  0  0  0  0  0  0  0
   -6.5196   -1.8688    2.4212 O   0  0  0  0  0  0  0  0  0  0  0  0
   -6.6217   -0.7620   -1.0438 O   0  0  0  0  0  0  0  0  0  0  0  0
   -7.6793    1.5365    0.0831 O   0  0  0  0  0  0  0  0  0  0  0  0
    3.2248    1.9806   -0.1764 C   0  0  1  0  0  0  0  0  0  0  0  0
    1.7829    1.3679   -0.1159 C   0  0  2  0  0  0  0  0  0  0  0  0
    4.3351    0.9500   -0.5533 C   0  0  1  0  0  0  0  0  0  0  0  0
    1.4494    0.5348   -1.3827 C   0  0  2  0  0  0  0  0  0  0  0  0
   -0.0114   -0.0471   -1.3821 C   0  0  2  0  0  0  0  0  0  0  0  0
    4.5086    0.1916    0.7940 C   0  0  2  0  0  0  0  0  0  0  0  0
    3.9149    0.0441   -1.7253 C   0  0  0  0  0  0  0  0  0  0  0  0
   -1.0490    1.0719   -1.0800 C   0  0  2  0  0  0  0  0  0  0  0  0
    2.5210   -0.5535   -1.5864 C   0  0  0  0  0  0  0  0  0  0  0  0
    3.6814    2.4690    1.2168 C   0  0  0  0  0  0  0  0  0  0  0  0
    0.7109    2.4595    0.0798 C   0  0  0  0  0  0  0  0  0  0  0  0
    4.4280    1.2947    1.8624 C   0  0  0  0  0  0  0  0  0  0  0  0
   -0.6854    1.8645    0.1830 C   0  0  0  0  0  0  0  0  0  0  0  0
   -0.1880   -1.2450   -0.4164 C   0  0  0  0  0  0  0  0  0  0  0  0
    5.6602    1.6413   -0.9781 C   0  0  0  0  0  0  0  0  0  0  0  0
   -2.4847    0.5258   -0.9743 C   0  0  0  0  0  0  0  0  0  0  0  0
   -1.6298   -1.7477   -0.3238 C   0  0  0  0  0  0  0  0  0  0  0  0
   -2.6131   -0.6344    0.0085 C   0  0  2  0  0  0  0  0  0  0  0  0
    5.7250   -0.6678    0.9217 C   0  0  0  0  0  0  0  0  0  0  0  0
   -0.2684   -0.5295   -2.7975 C   0  0  0  0  0  0  0  0  0  0  0  0
    7.0101   -0.1263    1.4084 C   0  0  0  0  0  0  0  0  0  0  0  0
    5.8265   -1.9628    0.6346 C   0  0  0  0  0  0  0  0  0  0  0  0
   -4.5914   -1.0711    1.2066 C   0  0  1  0  0  0  0  0  0  0  0  0
    7.2092   -2.3467    0.9231 C   0  0  0  0  0  0  0  0  0  0  0  0
   -6.0000   -1.6742    1.1074 C   0  0  2  0  0  0  0  0  0  0  0  0
   -6.9629   -0.7633    0.3417 C   0  0  1  0  0  0  0  0  0  0  0  0
   -5.4324    1.1589    0.9076 C   0  0  1  0  0  0  0  0  0  0  0  0
   -6.8836    0.6686    0.8813 C   0  0  1  0  0  0  0  0  0  0  0  0
   -5.3182    2.5480    1.5289 C   0  0  0  0  0  0  0  0  0  0  0  0
   -6.6807   -2.0700   -1.5910 C   0  0  0  0  0  0  0  0  0  0  0  0
    1.7289    0.6982    0.7520 H   0  0  0  0  0  0  0  0  0  0  0  0
    1.5240    1.2176   -2.2435 H   0  0  0  0  0  0  0  0  0  0  0  0
    3.6423   -0.4625    0.9573 H   0  0  0  0  0  0  0  0  0  0  0  0
    4.6390   -0.7683   -1.8601 H   0  0  0  0  0  0  0  0  0  0  0  0
    3.9378    0.6253   -2.6574 H   0  0  0  0  0  0  0  0  0  0  0  0
   -1.0471    1.7858   -1.9170 H   0  0  0  0  0  0  0  0  0  0  0  0
    2.5152   -1.2675   -0.7566 H   0  0  0  0  0  0  0  0  0  0  0  0
    2.3075   -1.1313   -2.4932 H   0  0  0  0  0  0  0  0  0  0  0  0
    2.8595    2.8023    1.8560 H   0  0  0  0  0  0  0  0  0  0  0  0
    4.3539    3.3308    1.1204 H   0  0  0  0  0  0  0  0  0  0  0  0
    0.9054    3.0390    0.9876 H   0  0  0  0  0  0  0  0  0  0  0  0
    0.7226    3.1686   -0.7568 H   0  0  0  0  0  0  0  0  0  0  0  0
    5.3945    1.6630    2.2164 H   0  0  0  0  0  0  0  0  0  0  0  0
    3.8861    0.9299    2.7429 H   0  0  0  0  0  0  0  0  0  0  0  0
   -0.7391    1.2372    1.0793 H   0  0  0  0  0  0  0  0  0  0  0  0
   -1.4071    2.6779    0.3278 H   0  0  0  0  0  0  0  0  0  0  0  0
    0.4376   -2.0935   -0.7185 H   0  0  0  0  0  0  0  0  0  0  0  0
    0.1433   -0.9648    0.5905 H   0  0  0  0  0  0  0  0  0  0  0  0
    6.4212    0.9085   -1.2672 H   0  0  0  0  0  0  0  0  0  0  0  0
    6.0741    2.2800   -0.1923 H   0  0  0  0  0  0  0  0  0  0  0  0
    5.5017    2.2796   -1.8553 H   0  0  0  0  0  0  0  0  0  0  0  0
   -2.8337    0.2011   -1.9635 H   0  0  0  0  0  0  0  0  0  0  0  0
   -3.1450    1.3492   -0.6965 H   0  0  0  0  0  0  0  0  0  0  0  0
   -1.9446   -2.2595   -1.2394 H   0  0  0  0  0  0  0  0  0  0  0  0
   -1.6893   -2.5205    0.4539 H   0  0  0  0  0  0  0  0  0  0  0  0
   -2.3753   -0.2764    1.0179 H   0  0  0  0  0  0  0  0  0  0  0  0
    2.8348    3.8429   -0.6557 H   0  0  0  0  0  0  0  0  0  0  0  0
   -0.1813    0.2297   -3.5947 H   0  0  0  0  0  0  0  0  0  0  0  0
    6.9626    0.2148    2.4460 H   0  0  0  0  0  0  0  0  0  0  0  0
    7.4391    0.6566    0.7821 H   0  0  0  0  0  0  0  0  0  0  0  0
    5.0641   -2.6248    0.2621 H   0  0  0  0  0  0  0  0  0  0  0  0
   -4.0157   -1.6508    1.9391 H   0  0  0  0  0  0  0  0  0  0  0  0
   -5.9332   -2.6709    0.6643 H   0  0  0  0  0  0  0  0  0  0  0  0
   -8.0006   -1.1079    0.4420 H   0  0  0  0  0  0  0  0  0  0  0  0
   -5.0593    1.2201   -0.1164 H   0  0  0  0  0  0  0  0  0  0  0  0
   -7.2944    0.6735    1.8992 H   0  0  0  0  0  0  0  0  0  0  0  0
   -5.9146   -2.4664    2.8929 H   0  0  0  0  0  0  0  0  0  0  0  0
   -4.2650    2.8411    1.6055 H   0  0  0  0  0  0  0  0  0  0  0  0
   -5.7207    2.5565    2.5477 H   0  0  0  0  0  0  0  0  0  0  0  0
   -5.8395    3.3057    0.9371 H   0  0  0  0  0  0  0  0  0  0  0  0
   -7.8002    2.3664    0.5743 H   0  0  0  0  0  0  0  0  0  0  0  0
   -6.8066   -1.9668   -2.6733 H   0  0  0  0  0  0  0  0  0  0  0  0
   -5.7426   -2.6092   -1.4356 H   0  0  0  0  0  0  0  0  0  0  0  0
   -7.5332   -2.6428   -1.2114 H   0  0  0  0  0  0  0  0  0  0  0  0
  1 10  1  0  0  0  0
  1 66  1  0  0  0  0
  2 27  1  0  0  0  0
  2 32  1  0  0  0  0
  3 29  2  0  0  0  0
  4 30  1  0  0  0  0
  4 33  1  0  0  0  0
  5 32  1  0  0  0  0
  5 36  1  0  0  0  0
  6 33  2  0  0  0  0
  7 34  1  0  0  0  0
  7 76  1  0  0  0  0
  8 35  1  0  0  0  0
  8 39  1  0  0  0  0
  9 37  1  0  0  0  0
  9 80  1  0  0  0  0
 10 11  1  0  0  0  0
 10 12  1  0  0  0  0
 10 19  1  0  0  0  0
 11 13  1  0  0  0  0
 11 20  1  0  0  0  0
 11 40  1  0  0  0  0
 12 15  1  0  0  0  0
 12 16  1  0  0  0  0
 12 24  1  0  0  0  0
 13 14  1  0  0  0  0
 13 18  1  0  0  0  0
 13 41  1  0  0  0  0
 14 17  1  0  0  0  0
 14 23  1  0  0  0  0
 14 29  1  0  0  0  0
 15 21  1  0  0  0  0
 15 28  1  0  0  0  0
 15 42  1  0  0  0  0
 16 18  1  0  0  0  0
 16 43  1  0  0  0  0
 16 44  1  0  0  0  0
 17 22  1  0  0  0  0
 17 25  1  0  0  0  0
 17 45  1  0  0  0  0
 18 46  1  0  0  0  0
 18 47  1  0  0  0  0
 19 21  1  0  0  0  0
 19 48  1  0  0  0  0
 19 49  1  0  0  0  0
 20 22  1  0  0  0  0
 20 50  1  0  0  0  0
 20 51  1  0  0  0  0
 21 52  1  0  0  0  0
 21 53  1  0  0  0  0
 22 54  1  0  0  0  0
 22 55  1  0  0  0  0
 23 26  1  0  0  0  0
 23 56  1  0  0  0  0
 23 57  1  0  0  0  0
 24 58  1  0  0  0  0
 24 59  1  0  0  0  0
 24 60  1  0  0  0  0
 25 27  1  0  0  0  0
 25 61  1  0  0  0  0
 25 62  1  0  0  0  0
 26 27  1  0  0  0  0
 26 63  1  0  0  0  0
 26 64  1  0  0  0  0
 27 65  1  0  0  0  0
 28 30  1  0  0  0  0
 28 31  2  0  0  0  0
 29 67  1  0  0  0  0
 30 68  1  0  0  0  0
 30 69  1  0  0  0  0
 31 33  1  0  0  0  0
 31 70  1  0  0  0  0
 32 34  1  0  0  0  0
 32 71  1  0  0  0  0
 34 35  1  0  0  0  0
 34 72  1  0  0  0  0
 35 37  1  0  0  0  0
 35 73  1  0  0  0  0
 36 37  1  0  0  0  0
 36 38  1  0  0  0  0
 36 74  1  0  0  0  0
 37 75  1  0  0  0  0
 38 77  1  0  0  0  0
 38 78  1  0  0  0  0
 38 79  1  0  0  0  0
 39 81  1  0  0  0  0
 39 82  1  0  0  0  0
 39 83  1  0  0  0  0
M  END
> <PUBCHEM_COMPOUND_CID>
14449

> <PUBCHEM_CONFORMER_RMSD>
1

> <PUBCHEM_CONFORMER_DIVERSEORDER>
18
342
175
349
168
310
20
256
296
146
297
123
49
155
130
274
221
248
237
124
200
185
217
225
126
117
394
199
328
40
48
254
333
228
183
373
243
157
188
167
286
101
379
89
14
115
226
51
362
62
127
106
103
125
401
302
61
273
227
177
277
322
189
293
164
134
395
90
120
301
233
367
298
288
247
331
347
307
132
282
283
358
300
178
166
190
209
334
31
380
397
259
37
329
391
181
361
79
211
359
27
402
91
383
109
262
216
350
369
75
270
172
180
47
170
315
142
86
81
206
231
66
100
141
78
289
390
327
69
135
194
39
324
240
232
337
252
365
63
356
11
203
82
8
388
370
220
77
122
351
360
158
165
321
284
353
119
281
2
398
139
133
266
260
346
3
320
241
389
138
336
28
94
41
93
174
198
372
87
201
246
332
253
212
278
354
195
182
393
10
381
236
295
16
88
271
151
267
261
57
102
303
162
96
54
80
140
291
230
213
161
159
116
208
400
148
294
21
15
339
76
305
179
68
368
396
35
55
173
234
107
386
318
210
36
272
169
319
382
341
44
285
56
292
374
343
65
244
187
104
74
192
335
50
309
70
137
264
196
113
312
317
314
207
371
378
171
64
22
121
163
24
186
143
238
251
276
144
46
108
235
257
111
45
7
30
377
313
13
316
129
160
384
6
279
214
23
1
375
114
193
363
223
131
26
5
154
385
72
330
73
348
255
280
42
263
326
184
258
149
84
355
52
239
306
218
53
268
340
366
118
85
229
357
92
58
19
387
269
97
249
325
222
43
204
323
344
364
176
98
60
345
153
29
304
290
299
71
338
110
59
245
287
9
197
376
242
12
224
202
215
105
38
311
150
34
191
128
250
219
33
83
95
152
399
17
67
352
308
147
25
112
145
392
156
136
99
275
205
32
4
265

> <PUBCHEM_MMFF94_PARTIAL_CHARGES>
29
1 -0.68
10 0.28
14 0.06
15 0.14
2 -0.56
27 0.28
28 -0.28
29 0.45
3 -0.57
30 0.42
31 -0.14
32 0.56
33 0.71
34 0.28
35 0.28
36 0.28
37 0.28
39 0.28
4 -0.43
5 -0.56
6 -0.57
66 0.4
67 0.06
7 -0.68
70 0.15
76 0.4
8 -0.56
80 0.4
9 -0.68

> <PUBCHEM_EFFECTIVE_ROTOR_COUNT>
8.8

> <PUBCHEM_PHARMACOPHORE_FEATURES>
17
1 1 acceptor
1 1 donor
1 2 acceptor
1 3 acceptor
1 5 acceptor
1 6 acceptor
1 7 acceptor
1 7 donor
1 8 acceptor
1 9 acceptor
1 9 donor
5 10 12 15 19 21 rings
5 4 28 30 31 33 rings
6 10 11 12 13 16 18 rings
6 11 13 14 17 20 22 rings
6 14 17 23 25 26 27 rings
6 5 32 34 35 36 37 rings

> <PUBCHEM_HEAVY_ATOM_COUNT>
39

> <PUBCHEM_ATOM_DEF_STEREO_COUNT>
8

> <PUBCHEM_ATOM_UDEF_STEREO_COUNT>
5

> <PUBCHEM_BOND_DEF_STEREO_COUNT>
0

> <PUBCHEM_BOND_UDEF_STEREO_COUNT>
0

> <PUBCHEM_ISOTOPIC_ATOM_COUNT>
0

> <PUBCHEM_COMPONENT_COUNT>
1

> <PUBCHEM_CACTVS_TAUTO_COUNT>
1

> <PUBCHEM_CONFORMER_ID>
0000387100000012

> <PUBCHEM_MMFF94_ENERGY>
134.4259

> <PUBCHEM_FEATURE_SELFOVERLAP>
86.543

> <PUBCHEM_SHAPE_FINGERPRINT>
10 15 17846498153472641920
10673678 19 10375867489897200776
10692045 39 17703794695704231518
10764073 3 18408887313156170087
11135609 12 18334009476705271920
11331351 85 16732984232453117917
117089 54 18191870012352019594
12107183 9 18412824685833518338
12422481 6 18131070420078900444
13150687 139 8646487475645856208
13540713 5 17629184186201512108
13673619 4 17168140122926959940
13782708 43 17749102309545623919
13811026 1 18201438043607346629
14294032 229 15840975797640711756
14347424 109 18413385458592163032
14767858 380 11818991872819600278
14931854 50 11674882148422277274
15064986 96 17345188884264507262
15183329 4 18130514119030161321
15320295 40 18342447159012431113
16992787 43 8935001507747733271
16994733 274 12751243579896954075
19246450 95 17987511512004000602
20105231 36 18201438040315472334
21033648 29 16200440199403897822
21057603 130 17530686490490538514
21130935 74 18337389456346818715
21424621 283 13686303469524512319
21987483 16 17770490152201918011
23522609 53 18044406943495454140
25269216 80 12901552330278506043
3383291 50 18186515501823896194
3504750 166 18272080635111346135
4112364 45 16199856376215217722
44317340 157 11815355792140556141
4516262 110 18044933726193985732
46194498 28 16805318917086868598
474113 269 18410000040667873679
504579 68 13479131272384373630
5104073 3 17702374238323719270
513202 73 17967530138426352804
5372103 7 10015567421212820290
54039377 194 18334576799204685554
6036956 94 12025805706738167714
6058803 2 17270298127686469212
6691757 9 16630229364599751438
9831232 110 17385720292656880818

> <PUBCHEM_SHAPE_MULTIPOLES>
749.78
22.74
2.93
2.14
7.46
0.15
0.66
-9.54
-12.37
-2.03
-0.53
0.18
-0.64
-2.11

> <PUBCHEM_SHAPE_SELFOVERLAP>
1614.163

> <PUBCHEM_SHAPE_VOLUME>
408.9

> <PUBCHEM_COORDINATE_TYPE>
2
5
10

$$$$
